Circuit: * C:\users\tliaudat\My Documents\Documents\Facultad\FIUBA\Materias\DCE\2019\TPF\modelos\caracteristicas\THD\ClassG_THD.asc

Warning: Multiple definitions of model "mpsa92" Type: BJT
Early termination of direct N-R iteration.
Direct Newton iteration failed to find .op point.  (Use ".option noopiter" to skip.)
Starting Gmin stepping
Gmin = 10
Gmin = 1.07374
Gmin = 0.115292
Gmin = 0.0123794
Gmin = 0.00132923
Gmin = 0.000142725
Gmin = 1.5325e-005
vernier = 0.5
vernier = 0.666667
Gmin = 4.6652e-006
vernier = 0.333333
vernier = 0.166667
vernier = 0.0833333
vernier = 0.0416667
Gmin = 4.38536e-006
vernier = 0.0208333
vernier = 0.0104167
vernier = 0.00520833
vernier = 0.00260417
vernier = 0.00130208
Gmin = 4.37823e-006
vernier = 0.00173611
vernier = 0.00231481
Gmin = 4.35675e-006
vernier = 0.00308642
vernier = 0.00411522
Gmin = 4.32272e-006
vernier = 0.00548696
Gmin = 4.26972e-006
vernier = 0.00731595
vernier = 0.00975459
Gmin = 4.18221e-006
vernier = 0.0130061
vernier = 0.0173415
Gmin = 4.04645e-006
vernier = 0.023122
Gmin = 3.84185e-006
vernier = 0.0308293
vernier = 0.0411057
Gmin = 3.52186e-006
vernier = 0.0548076
vernier = 0.0730768
Gmin = 3.06694e-006
vernier = 0.0974357
Gmin = 2.46912e-006
vernier = 0.129914
vernier = 0.173219
Gmin = 1.72033e-006
vernier = 0.230959
vernier = 0.307945
Gmin = 9.72962e-007
vernier = 0.410593
Gmin = 4.02377e-007
vernier = 0.547457
vernier = 0.729942
Gmin = 9.53232e-008
vernier = 0.973256
vernier = 1
Gmin = 1.18114e-008
Gmin = 1.26824e-009
Gmin = 1.36176e-010
Gmin = 1.46218e-011
Gmin = 1.57001e-012
Gmin = 1.68578e-013
Gmin = 0
Gmin stepping succeeded in finding the operating point.

.step vi=1.27 freq=1000
Changing Tseed to 1e-011
N-Period=1
Fourier components of V(vout)
DC component:-0.0297783

Harmonic	Frequency	 Fourier 	Normalized	 Phase  	Normalized
 Number 	  [Hz]   	Component	 Component	[degree]	Phase [deg]
    1   	1.000e+03	2.188e+01	1.000e+00	    0.01°	    0.00°
    2   	2.000e+03	3.670e-05	1.678e-06	  -60.25°	  -60.26°
    3   	3.000e+03	8.484e-05	3.878e-06	  -32.10°	  -32.11°
    4   	4.000e+03	1.967e-05	8.992e-07	   68.02°	   68.01°
    5   	5.000e+03	1.301e-04	5.949e-06	  -38.99°	  -39.00°
    6   	6.000e+03	5.963e-06	2.726e-07	  151.84°	  151.83°
    7   	7.000e+03	4.924e-05	2.251e-06	   28.63°	   28.63°
    8   	8.000e+03	1.194e-05	5.458e-07	  -28.30°	  -28.31°
    9   	9.000e+03	6.863e-05	3.137e-06	  150.40°	  150.39°
   10   	1.000e+04	1.108e-05	5.066e-07	  -93.62°	  -93.63°
   11   	1.100e+04	6.581e-05	3.009e-06	 -153.83°	 -153.83°
   12   	1.200e+04	8.798e-06	4.022e-07	   80.05°	   80.05°
   13   	1.300e+04	1.021e-04	4.666e-06	  -57.83°	  -57.84°
   14   	1.400e+04	1.646e-05	7.524e-07	  140.77°	  140.76°
   15   	1.500e+04	9.714e-05	4.440e-06	    6.81°	    6.80°
   16   	1.600e+04	5.947e-06	2.719e-07	   23.70°	   23.69°
   17   	1.700e+04	6.176e-05	2.823e-06	  143.09°	  143.08°
   18   	1.800e+04	1.139e-05	5.205e-07	  -58.43°	  -58.44°
   19   	1.900e+04	9.579e-05	4.379e-06	 -134.88°	 -134.89°
   20   	2.000e+04	5.500e-06	2.514e-07	  -18.03°	  -18.04°
   21   	2.100e+04	8.315e-05	3.801e-06	  -57.39°	  -57.40°
   22   	2.200e+04	1.073e-05	4.903e-07	 -174.44°	 -174.45°
   23   	2.300e+04	6.361e-05	2.908e-06	   18.81°	   18.81°
   24   	2.400e+04	3.636e-06	1.662e-07	  -94.14°	  -94.15°
   25   	2.500e+04	5.976e-05	2.732e-06	  130.36°	  130.35°
   26   	2.600e+04	7.190e-06	3.287e-07	  -92.58°	  -92.59°
   27   	2.700e+04	9.462e-05	4.326e-06	 -158.61°	 -158.62°
   28   	2.800e+04	9.033e-06	4.129e-07	  -87.50°	  -87.50°
   29   	2.900e+04	7.332e-05	3.352e-06	  -58.68°	  -58.69°
   30   	3.000e+04	1.091e-05	4.988e-07	  103.06°	  103.05°
   31   	3.100e+04	7.503e-05	3.430e-06	   30.08°	   30.07°
   32   	3.200e+04	8.102e-06	3.704e-07	 -171.90°	 -171.90°
   33   	3.300e+04	2.014e-05	9.206e-07	   88.60°	   88.59°
   34   	3.400e+04	2.235e-05	1.021e-06	  106.32°	  106.31°
   35   	3.500e+04	3.762e-05	1.720e-06	 -120.07°	 -120.08°
   36   	3.600e+04	8.368e-06	3.825e-07	  -44.59°	  -44.60°
   37   	3.700e+04	5.842e-05	2.671e-06	  -98.36°	  -98.36°
   38   	3.800e+04	5.753e-06	2.630e-07	 -134.90°	 -134.91°
   39   	3.900e+04	4.178e-05	1.910e-06	   34.46°	   34.45°
   40   	4.000e+04	1.054e-05	4.817e-07	  173.66°	  173.65°
Total Harmonic Distortion: 0.001541%(0.000000%)


.step vi=1.74 freq=1000
N-Period=1
Fourier components of V(vout)
DC component:-0.0410253

Harmonic	Frequency	 Fourier 	Normalized	 Phase  	Normalized
 Number 	  [Hz]   	Component	 Component	[degree]	Phase [deg]
    1   	1.000e+03	2.997e+01	1.000e+00	    0.01°	    0.00°
    2   	2.000e+03	8.700e-05	2.903e-06	  -33.79°	  -33.80°
    3   	3.000e+03	4.173e-05	1.392e-06	  -54.53°	  -54.54°
    4   	4.000e+03	1.293e-04	4.313e-06	   72.48°	   72.47°
    5   	5.000e+03	1.739e-04	5.802e-06	  -76.77°	  -76.78°
    6   	6.000e+03	6.834e-05	2.280e-06	  177.22°	  177.21°
    7   	7.000e+03	1.763e-04	5.881e-06	    1.49°	    1.48°
    8   	8.000e+03	8.225e-05	2.744e-06	 -107.18°	 -107.19°
    9   	9.000e+03	8.130e-05	2.713e-06	   50.06°	   50.06°
   10   	1.000e+04	6.127e-05	2.044e-06	  -18.56°	  -18.57°
   11   	1.100e+04	1.362e-04	4.543e-06	  179.41°	  179.41°
   12   	1.200e+04	6.770e-05	2.259e-06	   57.81°	   57.80°
   13   	1.300e+04	1.145e-04	3.822e-06	 -120.04°	 -120.05°
   14   	1.400e+04	3.896e-05	1.300e-06	  140.81°	  140.80°
   15   	1.500e+04	8.586e-05	2.865e-06	  -28.48°	  -28.49°
   16   	1.600e+04	6.645e-05	2.217e-06	 -140.44°	 -140.44°
   17   	1.700e+04	6.505e-05	2.170e-06	   14.48°	   14.47°
   18   	1.800e+04	1.947e-05	6.495e-07	  -58.96°	  -58.96°
   19   	1.900e+04	1.984e-05	6.619e-07	  134.51°	  134.50°
   20   	2.000e+04	5.094e-05	1.700e-06	   16.03°	   16.02°
   21   	2.100e+04	2.751e-05	9.177e-07	 -163.24°	 -163.25°
   22   	2.200e+04	3.879e-05	1.294e-06	  103.06°	  103.05°
   23   	2.300e+04	9.764e-05	3.258e-06	 -128.81°	 -128.82°
   24   	2.400e+04	1.551e-05	5.175e-07	 -167.61°	 -167.62°
   25   	2.500e+04	5.113e-05	1.706e-06	  -26.81°	  -26.82°
   26   	2.600e+04	5.478e-05	1.828e-06	 -121.08°	 -121.09°
   27   	2.700e+04	1.888e-05	6.300e-07	   55.95°	   55.94°
   28   	2.800e+04	4.167e-05	1.390e-06	  -12.73°	  -12.74°
   29   	2.900e+04	3.421e-05	1.141e-06	  -73.27°	  -73.28°
   30   	3.000e+04	3.762e-05	1.255e-06	   65.07°	   65.06°
   31   	3.100e+04	1.827e-05	6.096e-07	   -8.28°	   -8.29°
   32   	3.200e+04	2.376e-05	7.927e-07	  132.90°	  132.89°
   33   	3.300e+04	6.304e-05	2.103e-06	  -64.25°	  -64.26°
   34   	3.400e+04	3.303e-05	1.102e-06	 -144.08°	 -144.08°
   35   	3.500e+04	2.211e-05	7.376e-07	  129.33°	  129.32°
   36   	3.600e+04	3.310e-05	1.104e-06	  -69.84°	  -69.85°
   37   	3.700e+04	5.065e-05	1.690e-06	 -164.80°	 -164.81°
   38   	3.800e+04	2.069e-05	6.903e-07	   42.85°	   42.84°
   39   	3.900e+04	2.509e-05	8.372e-07	  160.00°	  159.99°
   40   	4.000e+04	1.603e-05	5.350e-07	  102.32°	  102.31°
Total Harmonic Distortion: 0.001492%(0.000000%)

.step vi=1.27 freq=2000
N-Period=1
Fourier components of V(vout)
DC component:-0.0144268

Harmonic	Frequency	 Fourier 	Normalized	 Phase  	Normalized
 Number 	  [Hz]   	Component	 Component	[degree]	Phase [deg]
    1   	2.000e+03	2.187e+01	1.000e+00	   -0.10°	    0.00°
    2   	4.000e+03	3.257e-05	1.489e-06	   -6.72°	   -6.62°
    3   	6.000e+03	4.770e-04	2.181e-05	   33.68°	   33.78°
    4   	8.000e+03	1.653e-05	7.557e-07	   96.68°	   96.78°
    5   	1.000e+04	4.016e-04	1.836e-05	  -20.49°	  -20.39°
    6   	1.200e+04	4.354e-05	1.990e-06	 -179.95°	 -179.85°
    7   	1.400e+04	3.451e-04	1.577e-05	 -153.01°	 -152.91°
    8   	1.600e+04	9.658e-05	4.415e-06	   -8.97°	   -8.87°
    9   	1.800e+04	1.444e-04	6.603e-06	  -18.02°	  -17.92°
   10   	2.000e+04	9.200e-05	4.206e-06	  166.57°	  166.67°
   11   	2.200e+04	2.260e-04	1.033e-05	  147.00°	  147.10°
   12   	2.400e+04	5.364e-05	2.452e-06	  -53.43°	  -53.33°
   13   	2.600e+04	2.034e-04	9.298e-06	  -32.21°	  -32.11°
   14   	2.800e+04	5.997e-05	2.741e-06	  119.25°	  119.35°
   15   	3.000e+04	7.876e-05	3.601e-06	 -103.27°	 -103.17°
   16   	3.200e+04	5.797e-05	2.650e-06	   12.48°	   12.57°
   17   	3.400e+04	7.475e-05	3.417e-06	  -31.62°	  -31.52°
   18   	3.600e+04	4.772e-05	2.182e-06	 -154.23°	 -154.13°
   19   	3.800e+04	9.485e-05	4.336e-06	  166.27°	  166.37°
   20   	4.000e+04	3.658e-05	1.672e-06	  -65.15°	  -65.06°
   21   	4.200e+04	8.006e-05	3.660e-06	  -55.27°	  -55.17°
   22   	4.400e+04	1.315e-05	6.011e-07	  113.87°	  113.97°
   23   	4.600e+04	4.799e-05	2.194e-06	  -51.58°	  -51.48°
   24   	4.800e+04	4.338e-05	1.983e-06	   49.21°	   49.31°
   25   	5.000e+04	5.746e-05	2.627e-06	  -96.58°	  -96.48°
   26   	5.200e+04	5.020e-05	2.295e-06	 -136.47°	 -136.37°
   27   	5.400e+04	6.386e-05	2.919e-06	  142.54°	  142.64°
   28   	5.600e+04	4.754e-05	2.173e-06	 -104.27°	 -104.18°
   29   	5.800e+04	6.278e-05	2.870e-06	 -138.28°	 -138.18°
   30   	6.000e+04	1.838e-06	8.403e-08	  -93.86°	  -93.76°
   31   	6.200e+04	1.026e-04	4.689e-06	   22.72°	   22.82°
   32   	6.400e+04	9.895e-05	4.523e-06	   97.42°	   97.52°
   33   	6.600e+04	9.370e-05	4.283e-06	  -91.44°	  -91.34°
   34   	6.800e+04	5.663e-05	2.589e-06	  -69.96°	  -69.86°
   35   	7.000e+04	4.291e-05	1.961e-06	   36.20°	   36.30°
   36   	7.200e+04	3.879e-05	1.773e-06	 -161.50°	 -161.40°
   37   	7.400e+04	4.939e-05	2.258e-06	 -154.85°	 -154.75°
   38   	7.600e+04	4.358e-05	1.992e-06	   39.84°	   39.94°
   39   	7.800e+04	3.114e-05	1.424e-06	  -53.85°	  -53.75°
   40   	8.000e+04	8.369e-06	3.826e-07	  -72.64°	  -72.54°
Total Harmonic Distortion: 0.003944%(0.000000%)

.step vi=1.74 freq=2000
N-Period=1
Fourier components of V(vout)
DC component:-0.020082

Harmonic	Frequency	 Fourier 	Normalized	 Phase  	Normalized
 Number 	  [Hz]   	Component	 Component	[degree]	Phase [deg]
    1   	2.000e+03	2.997e+01	1.000e+00	   -0.10°	    0.00°
    2   	4.000e+03	1.917e-04	6.397e-06	  121.80°	  121.89°
    3   	6.000e+03	2.374e-04	7.921e-06	    1.55°	    1.65°
    4   	8.000e+03	5.858e-05	1.955e-06	    0.90°	    0.99°
    5   	1.000e+04	1.072e-04	3.576e-06	  179.36°	  179.46°
    6   	1.200e+04	4.184e-05	1.396e-06	  106.30°	  106.39°
    7   	1.400e+04	2.223e-04	7.417e-06	   -9.79°	   -9.70°
    8   	1.600e+04	1.498e-04	4.998e-06	  -18.25°	  -18.15°
    9   	1.800e+04	4.010e-04	1.338e-05	  -30.88°	  -30.78°
   10   	2.000e+04	1.722e-04	5.744e-06	 -136.98°	 -136.88°
   11   	2.200e+04	4.105e-04	1.370e-05	 -178.57°	 -178.48°
   12   	2.400e+04	2.092e-04	6.980e-06	   96.33°	   96.43°
   13   	2.600e+04	1.025e-04	3.419e-06	  -20.15°	  -20.05°
   14   	2.800e+04	1.212e-04	4.045e-06	  -72.53°	  -72.44°
   15   	3.000e+04	1.606e-04	5.360e-06	  150.99°	  151.09°
   16   	3.200e+04	5.071e-05	1.692e-06	   32.63°	   32.72°
   17   	3.400e+04	2.381e-04	7.944e-06	  -41.65°	  -41.55°
   18   	3.600e+04	6.308e-05	2.105e-06	  -97.85°	  -97.75°
   19   	3.800e+04	3.648e-05	1.217e-06	  -34.17°	  -34.07°
   20   	4.000e+04	8.684e-05	2.898e-06	  136.73°	  136.83°
   21   	4.200e+04	7.805e-05	2.604e-06	 -104.22°	 -104.12°
   22   	4.400e+04	5.541e-05	1.849e-06	  115.47°	  115.57°
   23   	4.600e+04	4.754e-05	1.586e-06	  137.63°	  137.72°
   24   	4.800e+04	1.396e-04	4.659e-06	  -44.41°	  -44.32°
   25   	5.000e+04	8.156e-05	2.721e-06	 -157.99°	 -157.89°
   26   	5.200e+04	4.883e-05	1.629e-06	  155.90°	  156.00°
   27   	5.400e+04	5.302e-05	1.769e-06	  -51.80°	  -51.70°
   28   	5.600e+04	1.733e-05	5.782e-07	  -53.15°	  -53.05°
   29   	5.800e+04	9.811e-05	3.273e-06	  -35.52°	  -35.42°
   30   	6.000e+04	7.105e-05	2.371e-06	  141.75°	  141.84°
   31   	6.200e+04	6.686e-05	2.231e-06	  -17.16°	  -17.06°
   32   	6.400e+04	1.867e-05	6.228e-07	  -55.81°	  -55.71°
   33   	6.600e+04	6.509e-05	2.172e-06	 -116.70°	 -116.61°
   34   	6.800e+04	5.134e-05	1.713e-06	    1.44°	    1.53°
   35   	7.000e+04	2.558e-05	8.535e-07	  176.71°	  176.80°
   36   	7.200e+04	4.433e-05	1.479e-06	 -174.86°	 -174.76°
   37   	7.400e+04	4.714e-05	1.573e-06	 -129.57°	 -129.47°
   38   	7.600e+04	3.566e-05	1.190e-06	  -20.04°	  -19.94°
   39   	7.800e+04	2.110e-05	7.041e-07	   86.95°	   87.05°
   40   	8.000e+04	5.037e-05	1.681e-06	 -179.99°	 -179.89°
Total Harmonic Distortion: 0.002958%(0.000000%)

.step vi=1.27 freq=10000
N-Period=1
Fourier components of V(vout)
DC component:-0.0025484

Harmonic	Frequency	 Fourier 	Normalized	 Phase  	Normalized
 Number 	  [Hz]   	Component	 Component	[degree]	Phase [deg]
    1   	1.000e+04	2.187e+01	1.000e+00	   -0.67°	    0.00°
    2   	2.000e+04	7.259e-04	3.319e-05	   10.18°	   10.85°
    3   	3.000e+04	9.312e-04	4.258e-05	  -67.43°	  -66.76°
    4   	4.000e+04	4.560e-04	2.085e-05	  172.22°	  172.88°
    5   	5.000e+04	1.671e-03	7.639e-05	   -1.46°	   -0.79°
    6   	6.000e+04	3.342e-04	1.528e-05	 -108.85°	 -108.18°
    7   	7.000e+04	1.382e-03	6.320e-05	 -170.19°	 -169.52°
    8   	8.000e+04	4.416e-04	2.019e-05	   37.33°	   38.00°
    9   	9.000e+04	4.475e-04	2.046e-05	  -47.76°	  -47.09°
   10   	1.000e+05	1.959e-04	8.956e-06	  170.43°	  171.10°
   11   	1.100e+05	4.376e-04	2.001e-05	   17.66°	   18.33°
   12   	1.200e+05	3.169e-04	1.449e-05	  -85.35°	  -84.68°
   13   	1.300e+05	5.691e-04	2.602e-05	  -94.17°	  -93.50°
   14   	1.400e+05	2.575e-04	1.177e-05	   83.44°	   84.10°
   15   	1.500e+05	1.423e-04	6.506e-06	    1.13°	    1.79°
   16   	1.600e+05	1.279e-04	5.846e-06	 -137.76°	 -137.09°
   17   	1.700e+05	7.124e-05	3.257e-06	  -45.96°	  -45.29°
   18   	1.800e+05	1.650e-04	7.545e-06	  -37.93°	  -37.26°
   19   	1.900e+05	3.024e-04	1.383e-05	  -67.80°	  -67.14°
   20   	2.000e+05	1.549e-04	7.084e-06	  134.89°	  135.56°
   21   	2.100e+05	1.859e-04	8.500e-06	  -20.53°	  -19.86°
   22   	2.200e+05	1.781e-04	8.142e-06	  -83.40°	  -82.74°
   23   	2.300e+05	3.652e-05	1.670e-06	  -42.41°	  -41.74°
   24   	2.400e+05	1.331e-04	6.084e-06	   26.29°	   26.96°
   25   	2.500e+05	1.666e-04	7.619e-06	  -78.25°	  -77.58°
   26   	2.600e+05	2.490e-04	1.139e-05	  166.52°	  167.19°
   27   	2.700e+05	1.644e-04	7.516e-06	  -19.17°	  -18.50°
   28   	2.800e+05	2.844e-04	1.300e-05	  -66.55°	  -65.88°
   29   	2.900e+05	7.842e-05	3.585e-06	   47.89°	   48.56°
   30   	3.000e+05	1.460e-04	6.674e-06	   65.65°	   66.32°
   31   	3.100e+05	5.153e-05	2.356e-06	  -19.73°	  -19.07°
   32   	3.200e+05	2.325e-04	1.063e-05	  158.45°	  159.12°
   33   	3.300e+05	2.354e-04	1.076e-05	  -20.56°	  -19.90°
   34   	3.400e+05	2.867e-04	1.311e-05	  -50.26°	  -49.59°
   35   	3.500e+05	1.249e-05	5.709e-07	  -19.96°	  -19.29°
   36   	3.600e+05	8.155e-05	3.728e-06	   67.15°	   67.82°
   37   	3.700e+05	1.061e-04	4.849e-06	  -35.67°	  -35.01°
   38   	3.800e+05	1.590e-04	7.271e-06	  169.19°	  169.85°
   39   	3.900e+05	1.108e-04	5.067e-06	   25.50°	   26.17°
   40   	4.000e+05	1.686e-04	7.708e-06	  -53.06°	  -52.39°
Total Harmonic Distortion: 0.013176%(0.033920%)

.step vi=1.74 freq=10000
N-Period=1
Fourier components of V(vout)
DC component:-0.00361648

Harmonic	Frequency	 Fourier 	Normalized	 Phase  	Normalized
 Number 	  [Hz]   	Component	 Component	[degree]	Phase [deg]
    1   	1.000e+04	2.997e+01	1.000e+00	   -0.67°	    0.00°
    2   	2.000e+04	3.678e-04	1.227e-05	    4.23°	    4.89°
    3   	3.000e+04	3.516e-04	1.173e-05	  -76.47°	  -75.81°
    4   	4.000e+04	1.232e-04	4.112e-06	   69.82°	   70.49°
    5   	5.000e+04	7.390e-04	2.466e-05	  -83.29°	  -82.62°
    6   	6.000e+04	3.579e-05	1.194e-06	  171.16°	  171.82°
    7   	7.000e+04	3.502e-04	1.168e-05	  -33.30°	  -32.63°
    8   	8.000e+04	2.427e-04	8.098e-06	 -129.07°	 -128.40°
    9   	9.000e+04	4.463e-04	1.489e-05	  -17.13°	  -16.46°
   10   	1.000e+05	4.539e-05	1.515e-06	  -22.59°	  -21.93°
   11   	1.100e+05	4.612e-04	1.539e-05	 -163.93°	 -163.26°
   12   	1.200e+05	2.428e-04	8.102e-06	   49.16°	   49.82°
   13   	1.300e+05	3.180e-04	1.061e-05	  -37.28°	  -36.61°
   14   	1.400e+05	5.091e-05	1.699e-06	  -21.24°	  -20.57°
   15   	1.500e+05	3.460e-04	1.155e-05	  -69.22°	  -68.55°
   16   	1.600e+05	1.505e-04	5.022e-06	  -91.45°	  -90.78°
   17   	1.700e+05	3.734e-04	1.246e-05	  -37.27°	  -36.60°
   18   	1.800e+05	2.103e-04	7.019e-06	 -135.59°	 -134.92°
   19   	1.900e+05	1.728e-04	5.767e-06	  -28.88°	  -28.21°
   20   	2.000e+05	2.758e-05	9.202e-07	   12.38°	   13.04°
   21   	2.100e+05	1.569e-04	5.234e-06	  -93.99°	  -93.32°
   22   	2.200e+05	9.382e-05	3.131e-06	   66.61°	   67.28°
   23   	2.300e+05	1.120e-04	3.738e-06	  -47.69°	  -47.03°
   24   	2.400e+05	6.235e-05	2.081e-06	 -165.52°	 -164.85°
   25   	2.500e+05	1.696e-04	5.660e-06	  -49.71°	  -49.05°
   26   	2.600e+05	5.313e-05	1.773e-06	 -155.71°	 -155.04°
   27   	2.700e+05	1.943e-04	6.485e-06	   14.46°	   15.13°
   28   	2.800e+05	7.670e-05	2.559e-06	  -43.63°	  -42.96°
   29   	2.900e+05	2.387e-04	7.964e-06	   -9.94°	   -9.27°
   30   	3.000e+05	1.124e-04	3.750e-06	    2.54°	    3.21°
   31   	3.100e+05	2.038e-04	6.800e-06	  -39.01°	  -38.34°
   32   	3.200e+05	7.750e-05	2.586e-06	  -12.95°	  -12.28°
   33   	3.300e+05	1.929e-04	6.437e-06	  -47.01°	  -46.35°
   34   	3.400e+05	1.359e-04	4.535e-06	 -140.34°	 -139.67°
   35   	3.500e+05	8.562e-05	2.857e-06	  -50.89°	  -50.22°
   36   	3.600e+05	6.178e-05	2.062e-06	 -128.47°	 -127.80°
   37   	3.700e+05	6.502e-05	2.170e-06	   58.74°	   59.41°
   38   	3.800e+05	5.423e-05	1.809e-06	 -152.44°	 -151.78°
   39   	3.900e+05	9.959e-05	3.323e-06	   36.68°	   37.34°
   40   	4.000e+05	4.967e-05	1.658e-06	   67.99°	   68.66°
Total Harmonic Distortion: 0.005022%(0.037045%)

.step vi=1.27 freq=20000
N-Period=1
Fourier components of V(vout)
DC component:-0.00108706

Harmonic	Frequency	 Fourier 	Normalized	 Phase  	Normalized
 Number 	  [Hz]   	Component	 Component	[degree]	Phase [deg]
    1   	2.000e+04	2.187e+01	1.000e+00	   -1.35°	    0.00°
    2   	4.000e+04	9.366e-04	4.283e-05	   -3.29°	   -1.95°
    3   	6.000e+04	1.665e-03	7.613e-05	  -79.48°	  -78.13°
    4   	8.000e+04	7.226e-04	3.304e-05	  172.60°	  173.95°
    5   	1.000e+05	1.303e-03	5.960e-05	  -10.36°	   -9.01°
    6   	1.200e+05	1.437e-04	6.570e-06	 -125.13°	 -123.79°
    7   	1.400e+05	7.780e-04	3.558e-05	  175.37°	  176.71°
    8   	1.600e+05	5.856e-04	2.678e-05	   18.67°	   20.01°
    9   	1.800e+05	1.035e-03	4.732e-05	  -44.63°	  -43.28°
   10   	2.000e+05	6.167e-05	2.820e-06	 -130.02°	 -128.67°
   11   	2.200e+05	6.303e-04	2.883e-05	  -15.56°	  -14.22°
   12   	2.400e+05	4.459e-04	2.039e-05	  -76.22°	  -74.87°
   13   	2.600e+05	6.444e-04	2.947e-05	  -84.15°	  -82.80°
   14   	2.800e+05	1.861e-04	8.510e-06	 -152.85°	 -151.51°
   15   	3.000e+05	3.421e-04	1.564e-05	  -34.15°	  -32.80°
   16   	3.200e+05	3.052e-04	1.396e-05	  166.05°	  167.40°
   17   	3.400e+05	2.788e-04	1.275e-05	   53.65°	   54.99°
   18   	3.600e+05	4.101e-04	1.875e-05	   48.75°	   50.10°
   19   	3.800e+05	4.927e-04	2.253e-05	   14.39°	   15.73°
   20   	4.000e+05	2.767e-04	1.265e-05	  -17.66°	  -16.31°
   21   	4.200e+05	6.014e-04	2.750e-05	  -16.37°	  -15.02°
   22   	4.400e+05	5.391e-04	2.465e-05	  -66.54°	  -65.19°
   23   	4.600e+05	5.097e-04	2.331e-05	  -63.10°	  -61.76°
   24   	4.800e+05	2.142e-04	9.793e-06	 -152.60°	 -151.25°
   25   	5.000e+05	1.438e-04	6.578e-06	  156.64°	  157.99°
   26   	5.200e+05	3.724e-04	1.703e-05	  179.83°	  181.18°
   27   	5.400e+05	5.678e-04	2.596e-05	  108.46°	  109.81°
   28   	5.600e+05	4.026e-04	1.841e-05	   69.74°	   71.09°
   29   	5.800e+05	6.141e-04	2.809e-05	   27.90°	   29.25°
   30   	6.000e+05	4.457e-04	2.038e-05	   35.71°	   37.06°
   31   	6.200e+05	7.346e-04	3.359e-05	   12.25°	   13.60°
   32   	6.400e+05	6.875e-04	3.144e-05	  -55.35°	  -54.00°
   33   	6.600e+05	1.819e-04	8.316e-06	  -94.83°	  -93.49°
   34   	6.800e+05	3.287e-04	1.503e-05	 -109.99°	 -108.64°
   35   	7.000e+05	4.215e-04	1.928e-05	 -134.25°	 -132.90°
   36   	7.200e+05	6.010e-04	2.748e-05	  173.64°	  174.98°
   37   	7.400e+05	6.307e-04	2.884e-05	  105.52°	  106.87°
   38   	7.600e+05	3.671e-04	1.679e-05	   73.72°	   75.07°
   39   	7.800e+05	6.557e-04	2.999e-05	   90.78°	   92.13°
   40   	8.000e+05	7.062e-04	3.230e-05	   40.85°	   42.19°
Total Harmonic Distortion: 0.017750%(0.122083%)

.step vi=1.74 freq=20000
N-Period=1
Fourier components of V(vout)
DC component:-0.00270644

Harmonic	Frequency	 Fourier 	Normalized	 Phase  	Normalized
 Number 	  [Hz]   	Component	 Component	[degree]	Phase [deg]
    1   	2.000e+04	2.996e+01	1.000e+00	   -1.35°	    0.00°
    2   	4.000e+04	1.848e-03	6.170e-05	 -129.04°	 -127.69°
    3   	6.000e+04	2.394e-03	7.991e-05	 -146.41°	 -145.05°
    4   	8.000e+04	2.156e-03	7.197e-05	  168.98°	  170.33°
    5   	1.000e+05	1.451e-03	4.842e-05	  177.55°	  178.90°
    6   	1.200e+05	2.129e-03	7.105e-05	  122.35°	  123.70°
    7   	1.400e+05	1.836e-03	6.127e-05	   81.28°	   82.63°
    8   	1.600e+05	2.056e-03	6.863e-05	   70.77°	   72.12°
    9   	1.800e+05	2.491e-03	8.315e-05	   30.90°	   32.25°
   10   	2.000e+05	2.341e-03	7.813e-05	   17.83°	   19.18°
   11   	2.200e+05	2.207e-03	7.366e-05	  -11.13°	   -9.78°
   12   	2.400e+05	2.147e-03	7.168e-05	  -26.24°	  -24.89°
   13   	2.600e+05	2.719e-03	9.074e-05	  -49.61°	  -48.26°
   14   	2.800e+05	2.294e-03	7.656e-05	  -76.12°	  -74.77°
   15   	3.000e+05	2.339e-03	7.807e-05	  -93.75°	  -92.40°
   16   	3.200e+05	2.355e-03	7.862e-05	 -125.12°	 -123.77°
   17   	3.400e+05	1.843e-03	6.151e-05	 -138.94°	 -137.59°
   18   	3.600e+05	2.095e-03	6.993e-05	 -177.03°	 -175.68°
   19   	3.800e+05	1.772e-03	5.915e-05	  152.73°	  154.08°
   20   	4.000e+05	2.067e-03	6.899e-05	  129.35°	  130.70°
   21   	4.200e+05	1.929e-03	6.440e-05	   97.84°	   99.19°
   22   	4.400e+05	2.170e-03	7.242e-05	   84.15°	   85.50°
   23   	4.600e+05	2.403e-03	8.020e-05	   51.59°	   52.94°
   24   	4.800e+05	2.119e-03	7.072e-05	   29.59°	   30.94°
   25   	5.000e+05	2.360e-03	7.877e-05	   11.11°	   12.46°
   26   	5.200e+05	2.230e-03	7.443e-05	  -18.14°	  -16.79°
   27   	5.400e+05	2.256e-03	7.529e-05	  -32.81°	  -31.46°
   28   	5.600e+05	2.148e-03	7.170e-05	  -62.79°	  -61.44°
   29   	5.800e+05	1.937e-03	6.466e-05	  -82.98°	  -81.63°
   30   	6.000e+05	2.039e-03	6.806e-05	 -114.00°	 -112.65°
   31   	6.200e+05	1.750e-03	5.840e-05	 -137.94°	 -136.59°
   32   	6.400e+05	2.089e-03	6.973e-05	 -163.71°	 -162.36°
   33   	6.600e+05	1.968e-03	6.568e-05	  161.96°	  163.31°
   34   	6.800e+05	1.966e-03	6.561e-05	  144.74°	  146.09°
   35   	7.000e+05	2.187e-03	7.299e-05	  116.49°	  117.84°
   36   	7.200e+05	2.054e-03	6.857e-05	   93.14°	   94.49°
   37   	7.400e+05	2.294e-03	7.656e-05	   71.84°	   73.19°
   38   	7.600e+05	2.188e-03	7.303e-05	   46.66°	   48.01°
   39   	7.800e+05	2.190e-03	7.310e-05	   26.82°	   28.17°
   40   	8.000e+05	2.095e-03	6.991e-05	   -0.23°	    1.12°
Total Harmonic Distortion: 0.044571%(0.170242%)



Measurement: pmed_fuentes_neg
  step	AVG((v(m_va)*(i(m_va)))+(v(m_vb)*(i(m_vb))))	FROM	TO
     1	32.6271	0	0.015
     2	46.3117	0	0.015
     3	32.5499	0	0.0075
     4	46.2085	0	0.0075
     5	32.6502	0	0.0015
     6	46.384	0	0.0015
     7	33.0319	0	0.00075
     8	46.935	0	0.00075

Measurement: pmed_fuentes_pos
  step	AVG((v(va)*(-i(va)))+(v(vb)*(-i(vb))))	FROM	TO
     1	32.834	0	0.015
     2	46.4825	0	0.015
     3	32.8846	0	0.0075
     4	46.5586	0	0.0075
     5	33.1636	0	0.0015
     6	46.9654	0	0.0015
     7	33.6338	0	0.00075
     8	47.5761	0	0.00075

Measurement: pmed_f
  step	(pmed_fuentes_pos + pmed_fuentes_neg)
     1	65.4611
     2	92.7942
     3	65.4345
     4	92.7671
     5	65.8138
     6	93.3494
     7	66.6657
     8	94.5111

Measurement: pmed_rl
  step	AVG(v(vout)*(-i(rl)))	FROM	TO
     1	29.9092	0	0.015
     2	56.1433	0	0.015
     3	29.9062	0	0.0075
     4	56.1405	0	0.0075
     5	29.8978	0	0.0015
     6	56.1321	0	0.0015
     7	29.8856	0	0.00075
     8	56.1034	0	0.00075

Measurement: eff
  step	(pmed_rl / pmed_f)
     1	0.456901
     2	0.60503
     3	0.45704
     4	0.605177
     5	0.454279
     6	0.601312
     7	0.44829
     8	0.593617


Date: Sun Jun 09 20:24:27 2019
Total elapsed time: 138.543 seconds.

tnom = 27
temp = 27
method = modified trap
totiter = 743482
traniter = 741377
tranpoints = 357734
accept = 354716
rejected = 3019
matrix size = 124
fillins = 279
solver = Normal
Thread vector: 17.0/13.6[2] 6.6/4.4[2] 4.5/3.3[2] 1.1/1.9[1]  2592/500
Matrix Compiler1: 28.77 KB object code size  5.1/2.5/[1.7]
Matrix Compiler2: 15.92 KB object code size  2.0/2.1/[1.2]


